Circuit: * C:\Users\Smitt\Desktop\MP4\part C open loop gian.asc

Direct Newton iteration for .op point succeeded.

Date: Thu Dec 08 21:25:08 2022
Total elapsed time: 0.935 seconds.

tnom = 27
temp = 27
method = modified trap
totiter = 200047
traniter = 200034
tranpoints = 100018
accept = 100018
rejected = 0
matrix size = 11
fillins = 0
solver = Normal
Matrix Compiler1: 512 bytes object code size  0.1/0.1/[0.1]
Matrix Compiler2: 847 bytes object code size  0.1/0.1/[0.1]

