Circuit: * C:\Users\Smitt\Desktop\MP4\part C circuit.asc

Direct Newton iteration for .op point succeeded.

Date: Thu Dec 08 19:32:21 2022
Total elapsed time: 0.066 seconds.

tnom = 27
temp = 27
method = trap
totiter = 14
traniter = 0
tranpoints = 0
accept = 0
rejected = 0
matrix size = 11
fillins = 6
solver = Normal
Matrix Compiler1:      46 opcodes
Matrix Compiler2: 983 bytes object code size
