Circuit: * C:\Users\Smitt\Desktop\MP4\part C open loop.asc

Direct Newton iteration for .op point succeeded.

Date: Thu Dec 08 17:39:23 2022
Total elapsed time: 3.503 seconds.

tnom = 27
temp = 27
method = modified trap
totiter = 200065
traniter = 200051
tranpoints = 100022
accept = 100021
rejected = 1
matrix size = 10
fillins = 0
solver = Normal
Matrix Compiler1: 498 bytes object code size  0.1/0.1/[0.1]
Matrix Compiler2: 762 bytes object code size  0.1/0.1/[0.1]

