Circuit: * C:\Users\Smitt\Desktop\MP4\part A op amp first.asc

Direct Newton iteration for .op point succeeded.

Date: Thu Dec 08 15:54:08 2022
Total elapsed time: 0.069 seconds.

tnom = 27
temp = 27
method = trap
totiter = 13
traniter = 0
tranpoints = 0
accept = 0
rejected = 0
matrix size = 33
fillins = 54
solver = Normal
Matrix Compiler1:     235 opcodes
Matrix Compiler2: 3.62 KB object code size
