Circuit: * C:\Users\Smitt\Desktop\MP4\part C circuit closed loop midband gain.asc

Direct Newton iteration for .op point succeeded.

Date: Thu Dec 08 21:23:53 2022
Total elapsed time: 2.735 seconds.

tnom = 27
temp = 27
method = modified trap
totiter = 200047
traniter = 200034
tranpoints = 100018
accept = 100018
rejected = 0
matrix size = 11
fillins = 6
solver = Normal
Matrix Compiler1: 832 bytes object code size  0.2/0.1/[0.1]
Matrix Compiler2: 983 bytes object code size  0.1/0.1/[0.1]

