Circuit: * C:\Users\Smitt\Desktop\MP4\part C circuit closed loop input resistance.asc

Direct Newton iteration for .op point succeeded.

Date: Thu Dec 08 20:11:10 2022
Total elapsed time: 2.804 seconds.

tnom = 27
temp = 27
method = modified trap
totiter = 200050
traniter = 200036
tranpoints = 100018
accept = 100018
rejected = 0
matrix size = 10
fillins = 1
solver = Normal
Matrix Compiler1: 534 bytes object code size  0.1/0.1/[0.1]
Matrix Compiler2: 816 bytes object code size  0.1/0.1/[0.1]

