Circuit: * C:\Users\Smitt\Desktop\MP4\part C circuit closed loop output resistance.asc

Direct Newton iteration for .op point succeeded.

Date: Thu Dec 08 20:13:08 2022
Total elapsed time: 2.237 seconds.

tnom = 27
temp = 27
method = modified trap
totiter = 200070
traniter = 200056
tranpoints = 100022
accept = 100021
rejected = 1
matrix size = 10
fillins = 3
solver = Normal
Matrix Compiler1: 660 bytes object code size  0.1/0.1/[0.1]
Matrix Compiler2: 832 bytes object code size  0.1/0.1/[0.1]

