Circuit: * C:\Users\Smitt\Desktop\MP4\part C DC bias.asc

Direct Newton iteration for .op point succeeded.

Date: Thu Dec 08 16:56:05 2022
Total elapsed time: 0.109 seconds.

tnom = 27
temp = 27
method = modified trap
totiter = 2054
traniter = 2040
tranpoints = 1021
accept = 1021
rejected = 0
matrix size = 7
fillins = 0
solver = Normal
Matrix Compiler1: 366 bytes object code size  0.1/0.1/[0.1]
Matrix Compiler2: 569 bytes object code size  0.1/0.1/[0.1]

