Circuit: * C:\Users\Smitt\Desktop\MP4\part C open loop input resistance.asc

Direct Newton iteration for .op point succeeded.

Date: Thu Dec 08 17:35:48 2022
Total elapsed time: 3.852 seconds.

tnom = 27
temp = 27
method = modified trap
totiter = 200049
traniter = 200035
tranpoints = 100018
accept = 100018
rejected = 0
matrix size = 10
fillins = 1
solver = Normal
Matrix Compiler1: 516 bytes object code size  0.1/0.1/[0.1]
Matrix Compiler2: 782 bytes object code size  0.1/0.1/[0.1]

