Circuit: * C:\Users\Smitt\Desktop\Lab 3 ELEC 301\Cascode DC model.asc

Direct Newton iteration for .op point succeeded.

Date: Tue Nov 15 14:19:33 2022
Total elapsed time: 0.566 seconds.

tnom = 27
temp = 27
method = modified trap
totiter = 200052
traniter = 200046
tranpoints = 100024
accept = 100024
rejected = 0
matrix size = 9
fillins = 2
solver = Normal
Matrix Compiler1: 688 bytes object code size  0.3/0.2/[0.2]
Matrix Compiler2: 783 bytes object code size  0.2/0.3/[0.2]

