Circuit: * C:\Users\Smitt\Desktop\Lab 3 ELEC 301\Cascode tying new values.asc

Direct Newton iteration for .op point succeeded.

Date: Tue Nov 15 21:42:25 2022
Total elapsed time: 0.059 seconds.

tnom = 27
temp = 27
method = modified trap
totiter = 2041
traniter = 2035
tranpoints = 1018
accept = 1018
rejected = 0
matrix size = 14
fillins = 2
solver = Normal
Matrix Compiler1: 884 bytes object code size  0.2/0.1/[0.1]
Matrix Compiler2: 1.11 KB object code size  0.1/0.1/[0.1]

