Circuit: * C:\Users\Smitt\Desktop\Lab 3 ELEC 301\Cascode without caps chosen.asc

Fatal Error: Unknown subcircuit called in:
   xu1 n006 n002 n008 towtom2
