Circuit: * C:\Users\Smitt\Desktop\Lab 3 ELEC 301\Cascode for output impedence.asc

R2: both pins shorted together -- ignoring.
Direct Newton iteration for .op point succeeded.

Date: Tue Nov 15 21:04:02 2022
Total elapsed time: 0.090 seconds.

tnom = 27
temp = 27
method = modified trap
totiter = 2041
traniter = 2035
tranpoints = 1018
accept = 1018
rejected = 0
matrix size = 12
fillins = 3
solver = Normal
Matrix Compiler1: 838 bytes object code size  0.1/0.1/[0.1]
Matrix Compiler2: 996 bytes object code size  0.1/0.1/[0.1]

