Circuit: * C:\Users\Smitt\Desktop\ELEC 301\mp3\Cascode new values bode plot.asc

Direct Newton iteration for .op point succeeded.

Date: Mon Feb 20 16:07:40 2023
Total elapsed time: 0.036 seconds.

tnom = 27
temp = 27
method = trap
totiter = 6
traniter = 0
tranpoints = 0
accept = 0
rejected = 0
matrix size = 14
fillins = 2
solver = Normal
Matrix Compiler1:      50 opcodes
Matrix Compiler2: 1.11 KB object code size
