Circuit: * C:\Users\Smitt\Desktop\Lab 3 ELEC 301\part 4 circuit square.asc

Direct Newton iteration for .op point succeeded.
.step x=0.01
.step x=0.1

Date: Fri Nov 18 19:49:56 2022
Total elapsed time: 35.985 seconds.

tnom = 27
temp = 27
method = modified trap
totiter = 10303075
traniter = 10303069
tranpoints = 4035819
accept = 2466419
rejected = 1569400
matrix size = 17
fillins = 0
solver = Normal
Matrix Compiler1: 722 bytes object code size  0.2/0.1/[0.1]
Matrix Compiler2: 1.22 KB object code size  0.1/0.2/[0.1]

