Circuit: * C:\Users\Smitt\Desktop\Lab 3 ELEC 301\Part 3 differential amp.asc

Direct Newton iteration for .op point succeeded.

Date: Fri Nov 18 21:21:45 2022
Total elapsed time: 0.076 seconds.

tnom = 27
temp = 27
method = trap
totiter = 14
traniter = 0
tranpoints = 0
accept = 0
rejected = 0
matrix size = 15
fillins = 0
solver = Normal
Matrix Compiler1:      41 opcodes
Matrix Compiler2: 1.13 KB object code size
