Circuit: * C:\Users\Smitt\Desktop\Lab 3 ELEC 301\Part 3 differential amp DC OP.asc

Direct Newton iteration for .op point succeeded.

Date: Fri Nov 18 17:39:07 2022
Total elapsed time: 24.061 seconds.

tnom = 27
temp = 27
method = modified trap
totiter = 2000047
traniter = 2000034
tranpoints = 1000018
accept = 1000018
rejected = 0
matrix size = 12
fillins = 0
solver = Normal
Matrix Compiler1: 500 bytes object code size  0.1/0.1/[0.1]
Matrix Compiler2: 920 bytes object code size  0.1/0.1/[0.1]

