Circuit: * C:\Users\Smitt\Desktop\Lab 3 ELEC 301\Part 2 circuit output resistance.asc

Direct Newton iteration for .op point succeeded.

Date: Wed Nov 16 23:30:55 2022
Total elapsed time: 0.363 seconds.

tnom = 27
temp = 27
method = modified trap
totiter = 2067
traniter = 2059
tranpoints = 1022
accept = 1021
rejected = 1
matrix size = 9
fillins = 0
solver = Normal
Matrix Compiler1: 528 bytes object code size  0.3/0.2/[0.2]
Matrix Compiler2: 723 bytes object code size  0.2/0.3/[0.2]

