Circuit: * C:\Users\Smitt\Desktop\Lab 3 ELEC 301\Part 2 circuit input resistance.asc

WARNING: Node N007 is floating.

WARNING: Less than two connections to node N007.  This node is used by C1.
Direct Newton iteration for .op point succeeded.

Date: Fri Nov 18 15:06:19 2022
Total elapsed time: 0.226 seconds.

tnom = 27
temp = 27
method = modified trap
totiter = 2050
traniter = 2043
tranpoints = 1018
accept = 1018
rejected = 0
matrix size = 11
fillins = 1
solver = Normal
Matrix Compiler1: 646 bytes object code size  0.3/0.2/[0.2]
Matrix Compiler2: 889 bytes object code size  0.2/0.3/[0.2]

