Circuit: * C:\Users\Smitt\Desktop\Lab 3 ELEC 301\Part 3 differential amp saturation.asc

Direct Newton iteration for .op point succeeded.

Date: Fri Nov 18 19:43:00 2022
Total elapsed time: 0.425 seconds.

tnom = 27
temp = 27
method = modified trap
totiter = 207063
traniter = 207050
tranpoints = 100021
accept = 100021
rejected = 0
matrix size = 14
fillins = 0
solver = Normal
Matrix Compiler1: 564 bytes object code size  0.1/0.1/[0.1]
Matrix Compiler2: 1.06 KB object code size  0.1/0.2/[0.1]

