Circuit: * C:\Users\Smitt\Desktop\Lab 3 ELEC 301\Part 3 differential amp midband gain.asc

Direct Newton iteration for .op point succeeded.

Date: Fri Nov 18 17:08:19 2022
Total elapsed time: 3.985 seconds.

tnom = 27
temp = 27
method = modified trap
totiter = 2000053
traniter = 2000040
tranpoints = 1000021
accept = 1000021
rejected = 0
matrix size = 14
fillins = 0
solver = Normal
Matrix Compiler1: 582 bytes object code size  0.1/0.1/[0.1]
Matrix Compiler2: 1.05 KB object code size  0.1/0.2/[0.1]

