Circuit: * C:\Users\Smitt\Desktop\Lab 3 ELEC 301\part 4 circuit square no step.asc

Direct Newton iteration for .op point succeeded.

Date: Thu Nov 17 23:12:04 2022
Total elapsed time: 39.738 seconds.

tnom = 27
temp = 27
method = modified trap
totiter = 9936146
traniter = 9936140
tranpoints = 3872949
accept = 2482950
rejected = 1389999
matrix size = 17
fillins = 0
solver = Normal
Matrix Compiler1: 722 bytes object code size  0.4/0.3/[0.2]
Matrix Compiler2: 1.22 KB object code size  0.3/0.4/[0.3]

