Circuit: * C:\Users\Smitt\Desktop\ELEC 301\mp2\mp2 task 1B ii) 2N3904 profiling.asc

Error on line 2 : vce collector 0 vce
	 Unknown parameter "vce"
Vce: Missing value, assumed 0V @ DC
.step x=7e-006
.step x=7.5e-006
.step x=8e-006
.step x=8.5e-006
.step x=9e-006


Measurement "vloadavg" FAIL'ed


Date: Tue Oct 25 21:02:07 2022
Total elapsed time: 1.181 seconds.

tnom = 27
temp = 27
method = trap
totiter = 1209
traniter = 0
tranpoints = 0
accept = 0
rejected = 0
matrix size = 4
fillins = 0
solver = Normal
Matrix Compiler1:       6 opcodes  0.2/[0.1]/0.1
Matrix Compiler2: 248 bytes object code size  0.2/0.2/[0.1]

