Circuit: * C:\Users\Smitt\Desktop\ELEC 301\mp2\mp2 task3 a).asc

Direct Newton iteration for .op point succeeded.
.step x=0
.step x=0.005
.step x=0.01
.step x=0.015
.step x=0.02
.step x=0.025

Date: Fri Oct 28 23:42:21 2022
Total elapsed time: 0.105 seconds.

tnom = 27
temp = 27
method = trap
totiter = 6
traniter = 0
tranpoints = 0
accept = 0
rejected = 0
matrix size = 11
fillins = 0
solver = Normal
Matrix Compiler1:      33 opcodes
Matrix Compiler2: 847 bytes object code size
