Circuit: * C:\Users\Smitt\Desktop\ELEC 301\mp2\mp2 task 1 c i).asc

Direct Newton iteration for .op point succeeded.

Date: Fri Oct 28 21:59:45 2022
Total elapsed time: 0.450 seconds.

tnom = 27
temp = 27
method = modified trap
totiter = 200055
traniter = 200046
tranpoints = 100024
accept = 100024
rejected = 0
matrix size = 6
fillins = 0
solver = Normal
Matrix Compiler1: 298 bytes object code size  0.2/0.1/[0.1]
Matrix Compiler2: 462 bytes object code size  0.1/0.2/[0.1]

