Circuit: * C:\Users\Smitt\Desktop\ELEC 301\mp2\mp2 task2 c).asc

Direct Newton iteration for .op point succeeded.

Date: Fri Oct 28 22:50:51 2022
Total elapsed time: 0.209 seconds.

tnom = 27
temp = 27
method = trap
totiter = 6
traniter = 0
tranpoints = 0
accept = 0
rejected = 0
matrix size = 10
fillins = 0
solver = Normal
Matrix Compiler1:      30 opcodes
Matrix Compiler2: 774 bytes object code size
