Circuit: * C:\Users\Smitt\Desktop\ELEC 301\mp2\mp2 task 1B 2N3904 profiling.asc

Error on line 3 : vce collector 0 vce
	 Unknown parameter "vce"
Vce: Missing value, assumed 0V @ DC
.step x=0
.OP point found by inspection.
.step x=1
.step x=2
.step x=3
.step x=4
.step x=5


Measurement "vloadavg" FAIL'ed


Date: Sun Oct 23 19:23:59 2022
Total elapsed time: 0.627 seconds.

tnom = 27
temp = 27
method = trap
totiter = 5010
traniter = 0
tranpoints = 0
accept = 0
rejected = 0
matrix size = 7
fillins = 0
solver = Normal
Matrix Compiler1: 312 bytes object code size  0.1/0.1/[0.1]
Matrix Compiler2: 515 bytes object code size  0.1/0.1/[0.1]

