Circuit: * C:\Users\Smitt\Desktop\ELEC 301\mp2\mp2 task2.asc

.OP point found by inspection.

Date: Wed Oct 26 22:07:57 2022
Total elapsed time: 0.162 seconds.

tnom = 27
temp = 27
method = trap
totiter = 0
traniter = 0
tranpoints = 0
accept = 0
rejected = 0
matrix size = 9
fillins = 2
solver = Normal

