Circuit: * C:\Users\Smitt\Desktop\ELEC 301\mp2\mp2 task 1 d replaced with 2222.asc

Direct Newton iteration for .op point succeeded.

Date: Wed Oct 26 15:28:39 2022
Total elapsed time: 0.242 seconds.

tnom = 27
temp = 27
method = modified trap
totiter = 200052
traniter = 200046
tranpoints = 100024
accept = 100024
rejected = 0
matrix size = 8
fillins = 0
solver = Normal
Matrix Compiler1: 478 bytes object code size  0.1/0.1/[0.1]
Matrix Compiler2: 642 bytes object code size  0.1/0.1/[0.1]

