Circuit: * C:\Users\Smitt\Desktop\ELEC 301\mp2\mp2 task 1B iii) 2N3904 profiling.asc

Error on line 2 : vce collector 0 vce
	 Unknown parameter "vce"
Vce: Missing value, assumed 0V @ DC
.step x=0.645
.step x=0.646
.step x=0.647
.step x=0.648
.step x=0.649


Measurement "vloadavg" FAIL'ed


Date: Fri Oct 28 14:19:14 2022
Total elapsed time: 2.027 seconds.

tnom = 27
temp = 27
method = trap
totiter = 12007
traniter = 0
tranpoints = 0
accept = 0
rejected = 0
matrix size = 5
fillins = 0
solver = Normal
Matrix Compiler1: 114 bytes object code size  0.3/0.2/[0.1]
Matrix Compiler2: 301 bytes object code size  0.2/0.4/[0.2]

