Circuit: * C:\Users\Smitt\Desktop\ELEC 301\mp2\temp.asc

Rs: both pins shorted together -- ignoring.
Direct Newton iteration for .op point succeeded.
.step x=0
.step x=0.005
.step x=0.01
.step x=0.015
.step x=0.02
.step x=0.025

Date: Fri Oct 28 20:55:44 2022
Total elapsed time: 0.126 seconds.

tnom = 27
temp = 27
method = modified trap
totiter = 238
traniter = 231
tranpoints = 93
accept = 66
rejected = 27
matrix size = 9
fillins = 0
solver = Normal
Matrix Compiler1: 430 bytes object code size  0.1/0.1/[0.1]
Matrix Compiler2: 655 bytes object code size  0.1/0.1/[0.1]

