Circuit: * C:\Users\Smitt\Desktop\ELEC 301 simulations\MP1\Draft1.asc

Direct Newton iteration for .op point succeeded.

Date: Sun Oct 02 17:53:02 2022
Total elapsed time: 0.031 seconds.

tnom = 27
temp = 27
method = modified trap
totiter = 251
traniter = 248
tranpoints = 125
accept = 125
rejected = 0
matrix size = 2
fillins = 0
solver = Normal
Matrix Compiler1:       2 opcodes  0.0/[0.0]/0.0
Matrix Compiler2: 96 bytes object code size  0.0/0.0/[0.0]

