Circuit: * C:\Users\Smitt\Desktop\ELEC 301 simulations\MP1\figure 1.1 MP1.asc

WARNING: Less than two connections to node N004.  This node is used by E1.

Date: Thu Oct 06 14:17:49 2022
Total elapsed time: 0.070 seconds.

tnom = 27
temp = 27
method = trap
totiter = 0
traniter = 0
tranpoints = 0
accept = 0
rejected = 0
matrix size = 7
fillins = 2
solver = Normal

