Circuit: * C:\Users\Smitt\Desktop\ELEC 301 simulations\MP1\figure 1.2 MP1.asc


Date: Thu Oct 06 15:18:34 2022
Total elapsed time: 0.055 seconds.

tnom = 27
temp = 27
method = trap
totiter = 0
traniter = 0
tranpoints = 0
accept = 0
rejected = 0
matrix size = 6
fillins = 0
solver = Normal

